                                                                                
                                                                                
        -- CODE_ASTER -- VERSION:  DÉVELOPPEMENT STABILISÉE (testing) --        
                                                                                
                       Modified 13.1.0 version 14/12/2015                       
                  the revision 36893b10ca0c - branch  default                   
                        Copyright EDF R & D 1991 - 2016                         
                                                                                
                    Exécution of:  Mon Jul 11 13:43:02 2016                     
                         Name of the machine:  celsius                          
                               Structure:  64bit                                
                               CPU type:  x86_64                                
         Operating system:  Linux Ubuntu 16.04 xenial 4.4.0-30-generic          
                     Language of the messages:  en (UTF-8)                      
                                                                                
                             Python version: 2.7.12                             
                             NumPy version: 1.11.0                              
                             Parallelism MPI: idle                              
                           OpenMP parallelism: Nombre                           
                          credit of processes used:  4                          
                      Version of the HDF5 library : 1.8.10                      
                       Version of the MED library : 3.0.8                       
                     Version de la librairie MFront : 2.0.3                     
                         MUMPS library : not available                          
                          PETSc library: not available                          
                     Version of the SCOTCH library : 5.1.10                     
                  Mémoire limite pour l'exécution : 8192.00 Mo                  
                   consommée par l'initialisation : 276.33 Mo                   
                  par les objets du jeu de commandes : 8.16 Mo                  
                 reste pour l'allocation dynamique : 7906.12 Mo                 
                   Cut limiting files of exchange:  12.00 Go                    
                                                                                
   
   !-------------------------------------------------------------------------------!
   ! <A> <CHARGES2_87>                                                             !
   !                                                                               !
   !  La maille de nom M1 n'est pas de type surfacique (triangles ou quadrangles). !
   !  Elle ne sera pas affectée par SOURCE .                                       !
   !                                                                               !
   !                                                                               !
   ! This is a warning. If you do not understand the meaning of this               !
   !  warning, you can obtain unexpected results!                                  !
   !-------------------------------------------------------------------------------!
   
   
   !-------------------------------------------------------------------------------!
   ! <A> <CHARGES2_87>                                                             !
   !                                                                               !
   !  La maille de nom M2 n'est pas de type surfacique (triangles ou quadrangles). !
   !  Elle ne sera pas affectée par SOURCE .                                       !
   !                                                                               !
   !                                                                               !
   ! This is a warning. If you do not understand the meaning of this               !
   !  warning, you can obtain unexpected results!                                  !
   !-------------------------------------------------------------------------------!
   
   
   !-------------------------------------------------------------------------------!
   ! <A> <CHARGES2_87>                                                             !
   !                                                                               !
   !  La maille de nom M3 n'est pas de type surfacique (triangles ou quadrangles). !
   !  Elle ne sera pas affectée par SOURCE .                                       !
   !                                                                               !
   !                                                                               !
   ! This is a warning. If you do not understand the meaning of this               !
   !  warning, you can obtain unexpected results!                                  !
   !-------------------------------------------------------------------------------!
   
   
   !-------------------------------------------------------------------------------!
   ! <A> <CHARGES2_87>                                                             !
   !                                                                               !
   !  La maille de nom M4 n'est pas de type surfacique (triangles ou quadrangles). !
   !  Elle ne sera pas affectée par SOURCE .                                       !
   !                                                                               !
   !                                                                               !
   ! This is a warning. If you do not understand the meaning of this               !
   !  warning, you can obtain unexpected results!                                  !
   !-------------------------------------------------------------------------------!
   
   
   !-------------------------------------------------------------------------------!
   ! <A> <CHARGES2_87>                                                             !
   !                                                                               !
   !  La maille de nom M5 n'est pas de type surfacique (triangles ou quadrangles). !
   !  Elle ne sera pas affectée par SOURCE .                                       !
   !                                                                               !
   !                                                                               !
   ! This is a warning. If you do not understand the meaning of this               !
   !  warning, you can obtain unexpected results!                                  !
   !-------------------------------------------------------------------------------!
   
   
   !-------------------------------------------------------------------------------------!
   ! <A> <CATAMESS_41>                                                                   !
   !                                                                                     !
   ! The warning message  CHARGES2_87 was emitted 5 time, it will not be displayed more. !
   !                                                                                     !
   !                                                                                     !
   ! This is a warning. If you do not understand the meaning of this                     !
   !  warning, you can obtain unexpected results!                                        !
   !-------------------------------------------------------------------------------------!
   
   
   !-------------------------------------------------------------------------------!
   ! <A> <CALCULEL_40>                                                             !
   !                                                                               !
   !  Erreur possible d'utilisation:                                               !
   !    Vous avez affecté des données sur certaines mailles mais ces données       !
   !    n'ont pas de signification pour les éléments finis portés par ces mailles. !
   !    Il s'agit peut-être d'une erreur d'affectation.                            !
   !                                                                               !
   !  Champ : '.9000032.CHTH.SOURE'                                                !
   !  Commentaire sur ce champ : Chargement provenant du mot cle SOURCE            !
   !  Grandeur : SOUR_R   Composante non reconnue : SOUR                           !
   !                                                                               !
   !  Ce problème concerne 385 mailles                                             !
   !  Les premières mailles concernées sont imprimées ci-dessous.                  !
   !  Type de l'élément affecté sur la première maille imprimée : THPLSE2          !
   !                                                                               !
   !                                                                               !
   ! This is a warning. If you do not understand the meaning of this               !
   !  warning, you can obtain unexpected results!                                  !
   !-------------------------------------------------------------------------------!
   
   
   !-------------------------------------------------------------------------------!
   ! <A> <CHARGES2_87>                                                             !
   !                                                                               !
   !  La maille de nom M1 n'est pas de type surfacique (triangles ou quadrangles). !
   !  Elle ne sera pas affectée par SOURCE .                                       !
   !                                                                               !
   !                                                                               !
   ! This is a warning. If you do not understand the meaning of this               !
   !  warning, you can obtain unexpected results!                                  !
   !-------------------------------------------------------------------------------!
   
   
   !-------------------------------------------------------------------------------!
   ! <A> <CHARGES2_87>                                                             !
   !                                                                               !
   !  La maille de nom M2 n'est pas de type surfacique (triangles ou quadrangles). !
   !  Elle ne sera pas affectée par SOURCE .                                       !
   !                                                                               !
   !                                                                               !
   ! This is a warning. If you do not understand the meaning of this               !
   !  warning, you can obtain unexpected results!                                  !
   !-------------------------------------------------------------------------------!
   
   
   !-------------------------------------------------------------------------------!
   ! <A> <CHARGES2_87>                                                             !
   !                                                                               !
   !  La maille de nom M3 n'est pas de type surfacique (triangles ou quadrangles). !
   !  Elle ne sera pas affectée par SOURCE .                                       !
   !                                                                               !
   !                                                                               !
   ! This is a warning. If you do not understand the meaning of this               !
   !  warning, you can obtain unexpected results!                                  !
   !-------------------------------------------------------------------------------!
   
   
   !-------------------------------------------------------------------------------!
   ! <A> <CHARGES2_87>                                                             !
   !                                                                               !
   !  La maille de nom M4 n'est pas de type surfacique (triangles ou quadrangles). !
   !  Elle ne sera pas affectée par SOURCE .                                       !
   !                                                                               !
   !                                                                               !
   ! This is a warning. If you do not understand the meaning of this               !
   !  warning, you can obtain unexpected results!                                  !
   !-------------------------------------------------------------------------------!
   
   
   !-------------------------------------------------------------------------------!
   ! <A> <CHARGES2_87>                                                             !
   !                                                                               !
   !  La maille de nom M5 n'est pas de type surfacique (triangles ou quadrangles). !
   !  Elle ne sera pas affectée par SOURCE .                                       !
   !                                                                               !
   !                                                                               !
   ! This is a warning. If you do not understand the meaning of this               !
   !  warning, you can obtain unexpected results!                                  !
   !-------------------------------------------------------------------------------!
   
   
   !-------------------------------------------------------------------------------------!
   ! <A> <CATAMESS_41>                                                                   !
   !                                                                                     !
   ! The warning message  CHARGES2_87 was emitted 5 time, it will not be displayed more. !
   !                                                                                     !
   !                                                                                     !
   ! This is a warning. If you do not understand the meaning of this                     !
   !  warning, you can obtain unexpected results!                                        !
   !-------------------------------------------------------------------------------------!
   
   
   !-------------------------------------------------------------------------------!
   ! <A> <CALCULEL_40>                                                             !
   !                                                                               !
   !  Erreur possible d'utilisation:                                               !
   !    Vous avez affecté des données sur certaines mailles mais ces données       !
   !    n'ont pas de signification pour les éléments finis portés par ces mailles. !
   !    Il s'agit peut-être d'une erreur d'affectation.                            !
   !                                                                               !
   !  Champ : '.9000036.CHTH.SOURE'                                                !
   !  Commentaire sur ce champ : Chargement provenant du mot cle SOURCE            !
   !  Grandeur : SOUR_F   Composante non reconnue : SOUR                           !
   !                                                                               !
   !  Ce problème concerne 385 mailles                                             !
   !  Les premières mailles concernées sont imprimées ci-dessous.                  !
   !  Type de l'élément affecté sur la première maille imprimée : THPLSE2          !
   !                                                                               !
   !                                                                               !
   ! This is a warning. If you do not understand the meaning of this               !
   !  warning, you can obtain unexpected results!                                  !
   !-------------------------------------------------------------------------------!
   
   
   !-------------------------------------------------------------------------------!
   ! <A> <CHARGES2_87>                                                             !
   !                                                                               !
   !  La maille de nom M1 n'est pas de type surfacique (triangles ou quadrangles). !
   !  Elle ne sera pas affectée par SOURCE .                                       !
   !                                                                               !
   !                                                                               !
   ! This is a warning. If you do not understand the meaning of this               !
   !  warning, you can obtain unexpected results!                                  !
   !-------------------------------------------------------------------------------!
   
   
   !-------------------------------------------------------------------------------!
   ! <A> <CHARGES2_87>                                                             !
   !                                                                               !
   !  La maille de nom M2 n'est pas de type surfacique (triangles ou quadrangles). !
   !  Elle ne sera pas affectée par SOURCE .                                       !
   !                                                                               !
   !                                                                               !
   ! This is a warning. If you do not understand the meaning of this               !
   !  warning, you can obtain unexpected results!                                  !
   !-------------------------------------------------------------------------------!
   
   
   !-------------------------------------------------------------------------------!
   ! <A> <CHARGES2_87>                                                             !
   !                                                                               !
   !  La maille de nom M3 n'est pas de type surfacique (triangles ou quadrangles). !
   !  Elle ne sera pas affectée par SOURCE .                                       !
   !                                                                               !
   !                                                                               !
   ! This is a warning. If you do not understand the meaning of this               !
   !  warning, you can obtain unexpected results!                                  !
   !-------------------------------------------------------------------------------!
   
   
   !-------------------------------------------------------------------------------!
   ! <A> <CHARGES2_87>                                                             !
   !                                                                               !
   !  La maille de nom M4 n'est pas de type surfacique (triangles ou quadrangles). !
   !  Elle ne sera pas affectée par SOURCE .                                       !
   !                                                                               !
   !                                                                               !
   ! This is a warning. If you do not understand the meaning of this               !
   !  warning, you can obtain unexpected results!                                  !
   !-------------------------------------------------------------------------------!
   
   
   !-------------------------------------------------------------------------------!
   ! <A> <CHARGES2_87>                                                             !
   !                                                                               !
   !  La maille de nom M5 n'est pas de type surfacique (triangles ou quadrangles). !
   !  Elle ne sera pas affectée par SOURCE .                                       !
   !                                                                               !
   !                                                                               !
   ! This is a warning. If you do not understand the meaning of this               !
   !  warning, you can obtain unexpected results!                                  !
   !-------------------------------------------------------------------------------!
   
   
   !-------------------------------------------------------------------------------------!
   ! <A> <CATAMESS_41>                                                                   !
   !                                                                                     !
   ! The warning message  CHARGES2_87 was emitted 5 time, it will not be displayed more. !
   !                                                                                     !
   !                                                                                     !
   ! This is a warning. If you do not understand the meaning of this                     !
   !  warning, you can obtain unexpected results!                                        !
   !-------------------------------------------------------------------------------------!
   
   
   !-------------------------------------------------------------------------------!
   ! <A> <CALCULEL_40>                                                             !
   !                                                                               !
   !  Erreur possible d'utilisation:                                               !
   !    Vous avez affecté des données sur certaines mailles mais ces données       !
   !    n'ont pas de signification pour les éléments finis portés par ces mailles. !
   !    Il s'agit peut-être d'une erreur d'affectation.                            !
   !                                                                               !
   !  Champ : '.9000039.CHTH.SOURE'                                                !
   !  Commentaire sur ce champ : Chargement provenant du mot cle SOURCE            !
   !  Grandeur : SOUR_F   Composante non reconnue : SOUR                           !
   !                                                                               !
   !  Ce problème concerne 385 mailles                                             !
   !  Les premières mailles concernées sont imprimées ci-dessous.                  !
   !  Type de l'élément affecté sur la première maille imprimée : THPLSE2          !
   !                                                                               !
   !                                                                               !
   ! This is a warning. If you do not understand the meaning of this               !
   !  warning, you can obtain unexpected results!                                  !
   !-------------------------------------------------------------------------------!
   
   
   !--------------------------------------------------------------------------------------------!
   ! <A> <SUPERVIS_9>                                                                           !
   !                                                                                            !
   ! Fonctionnalité obsolète : La commande 'INTE_MAIL_2D'                                       !
   !                                                                                            !
   ! La fonctionnalité mentionnée ci-dessus est obsolète et son utilisation                     !
   ! est déconseillée dans la version du code que vous utilisez.                                !
   ! Elle sera supprimée dans la version 13.                                                    !
   !                                                                                            !
   ! Conseils :                                                                                 !
   ! - pour assurer la pérennité de votre étude, modifiez votre fichier de commandes ;          !
   ! - si vous avez un besoin impérieux de cette fonctionnalité,                                !
   !   rapprochez-vous de votre correspondant Club utilisateur ou de l'équipe de développement. !
   !                                                                                            !
   !                                                                                            !
   ! This is a warning. If you do not understand the meaning of this                            !
   !  warning, you can obtain unexpected results!                                               !
   !--------------------------------------------------------------------------------------------!
   
   
   !-------------------------------------------------------------------------------!
   ! <A> <CHARGES2_87>                                                             !
   !                                                                               !
   !  La maille de nom M1 n'est pas de type surfacique (triangles ou quadrangles). !
   !  Elle ne sera pas affectée par SOURCE .                                       !
   !                                                                               !
   !                                                                               !
   ! This is a warning. If you do not understand the meaning of this               !
   !  warning, you can obtain unexpected results!                                  !
   !-------------------------------------------------------------------------------!
   
   
   !-------------------------------------------------------------------------------!
   ! <A> <CHARGES2_87>                                                             !
   !                                                                               !
   !  La maille de nom M2 n'est pas de type surfacique (triangles ou quadrangles). !
   !  Elle ne sera pas affectée par SOURCE .                                       !
   !                                                                               !
   !                                                                               !
   ! This is a warning. If you do not understand the meaning of this               !
   !  warning, you can obtain unexpected results!                                  !
   !-------------------------------------------------------------------------------!
   
   
   !-------------------------------------------------------------------------------!
   ! <A> <CHARGES2_87>                                                             !
   !                                                                               !
   !  La maille de nom M3 n'est pas de type surfacique (triangles ou quadrangles). !
   !  Elle ne sera pas affectée par SOURCE .                                       !
   !                                                                               !
   !                                                                               !
   ! This is a warning. If you do not understand the meaning of this               !
   !  warning, you can obtain unexpected results!                                  !
   !-------------------------------------------------------------------------------!
   
   
   !-------------------------------------------------------------------------------!
   ! <A> <CHARGES2_87>                                                             !
   !                                                                               !
   !  La maille de nom M4 n'est pas de type surfacique (triangles ou quadrangles). !
   !  Elle ne sera pas affectée par SOURCE .                                       !
   !                                                                               !
   !                                                                               !
   ! This is a warning. If you do not understand the meaning of this               !
   !  warning, you can obtain unexpected results!                                  !
   !-------------------------------------------------------------------------------!
   
   
   !-------------------------------------------------------------------------------!
   ! <A> <CHARGES2_87>                                                             !
   !                                                                               !
   !  La maille de nom M5 n'est pas de type surfacique (triangles ou quadrangles). !
   !  Elle ne sera pas affectée par SOURCE .                                       !
   !                                                                               !
   !                                                                               !
   ! This is a warning. If you do not understand the meaning of this               !
   !  warning, you can obtain unexpected results!                                  !
   !-------------------------------------------------------------------------------!
   
   
   !-------------------------------------------------------------------------------------!
   ! <A> <CATAMESS_41>                                                                   !
   !                                                                                     !
   ! The warning message  CHARGES2_87 was emitted 5 time, it will not be displayed more. !
   !                                                                                     !
   !                                                                                     !
   ! This is a warning. If you do not understand the meaning of this                     !
   !  warning, you can obtain unexpected results!                                        !
   !-------------------------------------------------------------------------------------!
   
   
   !-------------------------------------------------------------------------------!
   ! <A> <CALCULEL_40>                                                             !
   !                                                                               !
   !  Erreur possible d'utilisation:                                               !
   !    Vous avez affecté des données sur certaines mailles mais ces données       !
   !    n'ont pas de signification pour les éléments finis portés par ces mailles. !
   !    Il s'agit peut-être d'une erreur d'affectation.                            !
   !                                                                               !
   !  Champ : '.9000050.CHTH.SOURE'                                                !
   !  Commentaire sur ce champ : Chargement provenant du mot cle SOURCE            !
   !  Grandeur : SOUR_R   Composante non reconnue : SOUR                           !
   !                                                                               !
   !  Ce problème concerne 385 mailles                                             !
   !  Les premières mailles concernées sont imprimées ci-dessous.                  !
   !  Type de l'élément affecté sur la première maille imprimée : THPLSE2          !
   !                                                                               !
   !                                                                               !
   ! This is a warning. If you do not understand the meaning of this               !
   !  warning, you can obtain unexpected results!                                  !
   !-------------------------------------------------------------------------------!
   
#
#--------------------------------------------------------------------------------
##ASTER 13.1.0 CONCEPT secMS12 CALCULE LE 07/11/2016 A 13:43:04 DE TYPE           
#TABLE_SDASTER                                                                   
LIEU                     A            IY           IZ           AY           AZ           EY           EZ           JX           JG           IYR2         IZR2         RY           RZ           RT          
tabMS12                   2.28760E+02  6.22831E+03  3.31309E+04  1.94878E+00  3.26368E+00  7.54486E-01  5.39855E+00  8.96681E+02  5.36309E+05 -1.51760E+03  9.60758E+04  2.35001E+01  1.50106E+01  5.73140E+00

   
   !-------------------------------------------------------------------------------!
   ! <A> <CHARGES2_87>                                                             !
   !                                                                               !
   !  La maille de nom M1 n'est pas de type surfacique (triangles ou quadrangles). !
   !  Elle ne sera pas affectée par SOURCE .                                       !
   !                                                                               !
   !                                                                               !
   ! This is a warning. If you do not understand the meaning of this               !
   !  warning, you can obtain unexpected results!                                  !
   !-------------------------------------------------------------------------------!
   
   
   !-------------------------------------------------------------------------------!
   ! <A> <CHARGES2_87>                                                             !
   !                                                                               !
   !  La maille de nom M2 n'est pas de type surfacique (triangles ou quadrangles). !
   !  Elle ne sera pas affectée par SOURCE .                                       !
   !                                                                               !
   !                                                                               !
   ! This is a warning. If you do not understand the meaning of this               !
   !  warning, you can obtain unexpected results!                                  !
   !-------------------------------------------------------------------------------!
   
   
   !-------------------------------------------------------------------------------!
   ! <A> <CHARGES2_87>                                                             !
   !                                                                               !
   !  La maille de nom M3 n'est pas de type surfacique (triangles ou quadrangles). !
   !  Elle ne sera pas affectée par SOURCE .                                       !
   !                                                                               !
   !                                                                               !
   ! This is a warning. If you do not understand the meaning of this               !
   !  warning, you can obtain unexpected results!                                  !
   !-------------------------------------------------------------------------------!
   
   
   !-------------------------------------------------------------------------------!
   ! <A> <CHARGES2_87>                                                             !
   !                                                                               !
   !  La maille de nom M4 n'est pas de type surfacique (triangles ou quadrangles). !
   !  Elle ne sera pas affectée par SOURCE .                                       !
   !                                                                               !
   !                                                                               !
   ! This is a warning. If you do not understand the meaning of this               !
   !  warning, you can obtain unexpected results!                                  !
   !-------------------------------------------------------------------------------!
   
   
   !-------------------------------------------------------------------------------!
   ! <A> <CHARGES2_87>                                                             !
   !                                                                               !
   !  La maille de nom M5 n'est pas de type surfacique (triangles ou quadrangles). !
   !  Elle ne sera pas affectée par SOURCE .                                       !
   !                                                                               !
   !                                                                               !
   ! This is a warning. If you do not understand the meaning of this               !
   !  warning, you can obtain unexpected results!                                  !
   !-------------------------------------------------------------------------------!
   
   
   !-------------------------------------------------------------------------------------!
   ! <A> <CATAMESS_41>                                                                   !
   !                                                                                     !
   ! The warning message  CHARGES2_87 was emitted 5 time, it will not be displayed more. !
   !                                                                                     !
   !                                                                                     !
   ! This is a warning. If you do not understand the meaning of this                     !
   !  warning, you can obtain unexpected results!                                        !
   !-------------------------------------------------------------------------------------!
   
   
   !-------------------------------------------------------------------------------!
   ! <A> <CALCULEL_40>                                                             !
   !                                                                               !
   !  Erreur possible d'utilisation:                                               !
   !    Vous avez affecté des données sur certaines mailles mais ces données       !
   !    n'ont pas de signification pour les éléments finis portés par ces mailles. !
   !    Il s'agit peut-être d'une erreur d'affectation.                            !
   !                                                                               !
   !  Champ : '.9000071.CHTH.SOURE'                                                !
   !  Commentaire sur ce champ : Chargement provenant du mot cle SOURCE            !
   !  Grandeur : SOUR_R   Composante non reconnue : SOUR                           !
   !                                                                               !
   !  Ce problème concerne 258 mailles                                             !
   !  Les premières mailles concernées sont imprimées ci-dessous.                  !
   !  Type de l'élément affecté sur la première maille imprimée : THPLSE2          !
   !                                                                               !
   !                                                                               !
   ! This is a warning. If you do not understand the meaning of this               !
   !  warning, you can obtain unexpected results!                                  !
   !-------------------------------------------------------------------------------!
   
   
   !-------------------------------------------------------------------------------!
   ! <A> <CHARGES2_87>                                                             !
   !                                                                               !
   !  La maille de nom M1 n'est pas de type surfacique (triangles ou quadrangles). !
   !  Elle ne sera pas affectée par SOURCE .                                       !
   !                                                                               !
   !                                                                               !
   ! This is a warning. If you do not understand the meaning of this               !
   !  warning, you can obtain unexpected results!                                  !
   !-------------------------------------------------------------------------------!
   
   
   !-------------------------------------------------------------------------------!
   ! <A> <CHARGES2_87>                                                             !
   !                                                                               !
   !  La maille de nom M2 n'est pas de type surfacique (triangles ou quadrangles). !
   !  Elle ne sera pas affectée par SOURCE .                                       !
   !                                                                               !
   !                                                                               !
   ! This is a warning. If you do not understand the meaning of this               !
   !  warning, you can obtain unexpected results!                                  !
   !-------------------------------------------------------------------------------!
   
   
   !-------------------------------------------------------------------------------!
   ! <A> <CHARGES2_87>                                                             !
   !                                                                               !
   !  La maille de nom M3 n'est pas de type surfacique (triangles ou quadrangles). !
   !  Elle ne sera pas affectée par SOURCE .                                       !
   !                                                                               !
   !                                                                               !
   ! This is a warning. If you do not understand the meaning of this               !
   !  warning, you can obtain unexpected results!                                  !
   !-------------------------------------------------------------------------------!
   
   
   !-------------------------------------------------------------------------------!
   ! <A> <CHARGES2_87>                                                             !
   !                                                                               !
   !  La maille de nom M4 n'est pas de type surfacique (triangles ou quadrangles). !
   !  Elle ne sera pas affectée par SOURCE .                                       !
   !                                                                               !
   !                                                                               !
   ! This is a warning. If you do not understand the meaning of this               !
   !  warning, you can obtain unexpected results!                                  !
   !-------------------------------------------------------------------------------!
   
   
   !-------------------------------------------------------------------------------!
   ! <A> <CHARGES2_87>                                                             !
   !                                                                               !
   !  La maille de nom M5 n'est pas de type surfacique (triangles ou quadrangles). !
   !  Elle ne sera pas affectée par SOURCE .                                       !
   !                                                                               !
   !                                                                               !
   ! This is a warning. If you do not understand the meaning of this               !
   !  warning, you can obtain unexpected results!                                  !
   !-------------------------------------------------------------------------------!
   
   
   !-------------------------------------------------------------------------------------!
   ! <A> <CATAMESS_41>                                                                   !
   !                                                                                     !
   ! The warning message  CHARGES2_87 was emitted 5 time, it will not be displayed more. !
   !                                                                                     !
   !                                                                                     !
   ! This is a warning. If you do not understand the meaning of this                     !
   !  warning, you can obtain unexpected results!                                        !
   !-------------------------------------------------------------------------------------!
   
   
   !-------------------------------------------------------------------------------!
   ! <A> <CALCULEL_40>                                                             !
   !                                                                               !
   !  Erreur possible d'utilisation:                                               !
   !    Vous avez affecté des données sur certaines mailles mais ces données       !
   !    n'ont pas de signification pour les éléments finis portés par ces mailles. !
   !    Il s'agit peut-être d'une erreur d'affectation.                            !
   !                                                                               !
   !  Champ : '.9000075.CHTH.SOURE'                                                !
   !  Commentaire sur ce champ : Chargement provenant du mot cle SOURCE            !
   !  Grandeur : SOUR_F   Composante non reconnue : SOUR                           !
   !                                                                               !
   !  Ce problème concerne 258 mailles                                             !
   !  Les premières mailles concernées sont imprimées ci-dessous.                  !
   !  Type de l'élément affecté sur la première maille imprimée : THPLSE2          !
   !                                                                               !
   !                                                                               !
   ! This is a warning. If you do not understand the meaning of this               !
   !  warning, you can obtain unexpected results!                                  !
   !-------------------------------------------------------------------------------!
   
   
   !-------------------------------------------------------------------------------!
   ! <A> <CHARGES2_87>                                                             !
   !                                                                               !
   !  La maille de nom M1 n'est pas de type surfacique (triangles ou quadrangles). !
   !  Elle ne sera pas affectée par SOURCE .                                       !
   !                                                                               !
   !                                                                               !
   ! This is a warning. If you do not understand the meaning of this               !
   !  warning, you can obtain unexpected results!                                  !
   !-------------------------------------------------------------------------------!
   
   
   !-------------------------------------------------------------------------------!
   ! <A> <CHARGES2_87>                                                             !
   !                                                                               !
   !  La maille de nom M2 n'est pas de type surfacique (triangles ou quadrangles). !
   !  Elle ne sera pas affectée par SOURCE .                                       !
   !                                                                               !
   !                                                                               !
   ! This is a warning. If you do not understand the meaning of this               !
   !  warning, you can obtain unexpected results!                                  !
   !-------------------------------------------------------------------------------!
   
   
   !-------------------------------------------------------------------------------!
   ! <A> <CHARGES2_87>                                                             !
   !                                                                               !
   !  La maille de nom M3 n'est pas de type surfacique (triangles ou quadrangles). !
   !  Elle ne sera pas affectée par SOURCE .                                       !
   !                                                                               !
   !                                                                               !
   ! This is a warning. If you do not understand the meaning of this               !
   !  warning, you can obtain unexpected results!                                  !
   !-------------------------------------------------------------------------------!
   
   
   !-------------------------------------------------------------------------------!
   ! <A> <CHARGES2_87>                                                             !
   !                                                                               !
   !  La maille de nom M4 n'est pas de type surfacique (triangles ou quadrangles). !
   !  Elle ne sera pas affectée par SOURCE .                                       !
   !                                                                               !
   !                                                                               !
   ! This is a warning. If you do not understand the meaning of this               !
   !  warning, you can obtain unexpected results!                                  !
   !-------------------------------------------------------------------------------!
   
   
   !-------------------------------------------------------------------------------!
   ! <A> <CHARGES2_87>                                                             !
   !                                                                               !
   !  La maille de nom M5 n'est pas de type surfacique (triangles ou quadrangles). !
   !  Elle ne sera pas affectée par SOURCE .                                       !
   !                                                                               !
   !                                                                               !
   ! This is a warning. If you do not understand the meaning of this               !
   !  warning, you can obtain unexpected results!                                  !
   !-------------------------------------------------------------------------------!
   
   
   !-------------------------------------------------------------------------------------!
   ! <A> <CATAMESS_41>                                                                   !
   !                                                                                     !
   ! The warning message  CHARGES2_87 was emitted 5 time, it will not be displayed more. !
   !                                                                                     !
   !                                                                                     !
   ! This is a warning. If you do not understand the meaning of this                     !
   !  warning, you can obtain unexpected results!                                        !
   !-------------------------------------------------------------------------------------!
   
   
   !-------------------------------------------------------------------------------!
   ! <A> <CALCULEL_40>                                                             !
   !                                                                               !
   !  Erreur possible d'utilisation:                                               !
   !    Vous avez affecté des données sur certaines mailles mais ces données       !
   !    n'ont pas de signification pour les éléments finis portés par ces mailles. !
   !    Il s'agit peut-être d'une erreur d'affectation.                            !
   !                                                                               !
   !  Champ : '.9000078.CHTH.SOURE'                                                !
   !  Commentaire sur ce champ : Chargement provenant du mot cle SOURCE            !
   !  Grandeur : SOUR_F   Composante non reconnue : SOUR                           !
   !                                                                               !
   !  Ce problème concerne 258 mailles                                             !
   !  Les premières mailles concernées sont imprimées ci-dessous.                  !
   !  Type de l'élément affecté sur la première maille imprimée : THPLSE2          !
   !                                                                               !
   !                                                                               !
   ! This is a warning. If you do not understand the meaning of this               !
   !  warning, you can obtain unexpected results!                                  !
   !-------------------------------------------------------------------------------!
   
   
   !--------------------------------------------------------------------------------------------!
   ! <A> <SUPERVIS_9>                                                                           !
   !                                                                                            !
   ! Fonctionnalité obsolète : La commande 'INTE_MAIL_2D'                                       !
   !                                                                                            !
   ! La fonctionnalité mentionnée ci-dessus est obsolète et son utilisation                     !
   ! est déconseillée dans la version du code que vous utilisez.                                !
   ! Elle sera supprimée dans la version 13.                                                    !
   !                                                                                            !
   ! Conseils :                                                                                 !
   ! - pour assurer la pérennité de votre étude, modifiez votre fichier de commandes ;          !
   ! - si vous avez un besoin impérieux de cette fonctionnalité,                                !
   !   rapprochez-vous de votre correspondant Club utilisateur ou de l'équipe de développement. !
   !                                                                                            !
   !                                                                                            !
   ! This is a warning. If you do not understand the meaning of this                            !
   !  warning, you can obtain unexpected results!                                               !
   !--------------------------------------------------------------------------------------------!
   
   
   !-------------------------------------------------------------------------------!
   ! <A> <CHARGES2_87>                                                             !
   !                                                                               !
   !  La maille de nom M1 n'est pas de type surfacique (triangles ou quadrangles). !
   !  Elle ne sera pas affectée par SOURCE .                                       !
   !                                                                               !
   !                                                                               !
   ! This is a warning. If you do not understand the meaning of this               !
   !  warning, you can obtain unexpected results!                                  !
   !-------------------------------------------------------------------------------!
   
   
   !-------------------------------------------------------------------------------!
   ! <A> <CHARGES2_87>                                                             !
   !                                                                               !
   !  La maille de nom M2 n'est pas de type surfacique (triangles ou quadrangles). !
   !  Elle ne sera pas affectée par SOURCE .                                       !
   !                                                                               !
   !                                                                               !
   ! This is a warning. If you do not understand the meaning of this               !
   !  warning, you can obtain unexpected results!                                  !
   !-------------------------------------------------------------------------------!
   
   
   !-------------------------------------------------------------------------------!
   ! <A> <CHARGES2_87>                                                             !
   !                                                                               !
   !  La maille de nom M3 n'est pas de type surfacique (triangles ou quadrangles). !
   !  Elle ne sera pas affectée par SOURCE .                                       !
   !                                                                               !
   !                                                                               !
   ! This is a warning. If you do not understand the meaning of this               !
   !  warning, you can obtain unexpected results!                                  !
   !-------------------------------------------------------------------------------!
   
   
   !-------------------------------------------------------------------------------!
   ! <A> <CHARGES2_87>                                                             !
   !                                                                               !
   !  La maille de nom M4 n'est pas de type surfacique (triangles ou quadrangles). !
   !  Elle ne sera pas affectée par SOURCE .                                       !
   !                                                                               !
   !                                                                               !
   ! This is a warning. If you do not understand the meaning of this               !
   !  warning, you can obtain unexpected results!                                  !
   !-------------------------------------------------------------------------------!
   
   
   !-------------------------------------------------------------------------------!
   ! <A> <CHARGES2_87>                                                             !
   !                                                                               !
   !  La maille de nom M5 n'est pas de type surfacique (triangles ou quadrangles). !
   !  Elle ne sera pas affectée par SOURCE .                                       !
   !                                                                               !
   !                                                                               !
   ! This is a warning. If you do not understand the meaning of this               !
   !  warning, you can obtain unexpected results!                                  !
   !-------------------------------------------------------------------------------!
   
   
   !-------------------------------------------------------------------------------------!
   ! <A> <CATAMESS_41>                                                                   !
   !                                                                                     !
   ! The warning message  CHARGES2_87 was emitted 5 time, it will not be displayed more. !
   !                                                                                     !
   !                                                                                     !
   ! This is a warning. If you do not understand the meaning of this                     !
   !  warning, you can obtain unexpected results!                                        !
   !-------------------------------------------------------------------------------------!
   
   
   !-------------------------------------------------------------------------------!
   ! <A> <CALCULEL_40>                                                             !
   !                                                                               !
   !  Erreur possible d'utilisation:                                               !
   !    Vous avez affecté des données sur certaines mailles mais ces données       !
   !    n'ont pas de signification pour les éléments finis portés par ces mailles. !
   !    Il s'agit peut-être d'une erreur d'affectation.                            !
   !                                                                               !
   !  Champ : '.9000089.CHTH.SOURE'                                                !
   !  Commentaire sur ce champ : Chargement provenant du mot cle SOURCE            !
   !  Grandeur : SOUR_R   Composante non reconnue : SOUR                           !
   !                                                                               !
   !  Ce problème concerne 258 mailles                                             !
   !  Les premières mailles concernées sont imprimées ci-dessous.                  !
   !  Type de l'élément affecté sur la première maille imprimée : THPLSE2          !
   !                                                                               !
   !                                                                               !
   ! This is a warning. If you do not understand the meaning of this               !
   !  warning, you can obtain unexpected results!                                  !
   !-------------------------------------------------------------------------------!
   
#
#--------------------------------------------------------------------------------
##ASTER 13.1.0 CONCEPT secMS34 CALCULE LE 07/11/2016 A 13:43:04 DE TYPE           
#TABLE_SDASTER                                                                   
LIEU                     A            IY           IZ           AY           AZ           EY           EZ           JX           JG           IYR2         IZR2         RY           RZ           RT          
tabMS34                   1.17760E+02  1.94934E+03  9.34369E+03  1.97286E+00  3.26670E+00  1.05912E-05  6.46247E+00  2.80289E+02  1.89743E+05  2.64435E+04 -1.48699E-04  1.25000E+01  1.09951E+01  2.85776E+00

   
   !-------------------------------------------------------------------------------!
   ! <A> <CHARGES2_87>                                                             !
   !                                                                               !
   !  La maille de nom M1 n'est pas de type surfacique (triangles ou quadrangles). !
   !  Elle ne sera pas affectée par SOURCE .                                       !
   !                                                                               !
   !                                                                               !
   ! This is a warning. If you do not understand the meaning of this               !
   !  warning, you can obtain unexpected results!                                  !
   !-------------------------------------------------------------------------------!
   
   
   !-------------------------------------------------------------------------------!
   ! <A> <CHARGES2_87>                                                             !
   !                                                                               !
   !  La maille de nom M2 n'est pas de type surfacique (triangles ou quadrangles). !
   !  Elle ne sera pas affectée par SOURCE .                                       !
   !                                                                               !
   !                                                                               !
   ! This is a warning. If you do not understand the meaning of this               !
   !  warning, you can obtain unexpected results!                                  !
   !-------------------------------------------------------------------------------!
   
   
   !-------------------------------------------------------------------------------!
   ! <A> <CHARGES2_87>                                                             !
   !                                                                               !
   !  La maille de nom M3 n'est pas de type surfacique (triangles ou quadrangles). !
   !  Elle ne sera pas affectée par SOURCE .                                       !
   !                                                                               !
   !                                                                               !
   ! This is a warning. If you do not understand the meaning of this               !
   !  warning, you can obtain unexpected results!                                  !
   !-------------------------------------------------------------------------------!
   
   
   !-------------------------------------------------------------------------------!
   ! <A> <CHARGES2_87>                                                             !
   !                                                                               !
   !  La maille de nom M4 n'est pas de type surfacique (triangles ou quadrangles). !
   !  Elle ne sera pas affectée par SOURCE .                                       !
   !                                                                               !
   !                                                                               !
   ! This is a warning. If you do not understand the meaning of this               !
   !  warning, you can obtain unexpected results!                                  !
   !-------------------------------------------------------------------------------!
   
   
   !-------------------------------------------------------------------------------!
   ! <A> <CHARGES2_87>                                                             !
   !                                                                               !
   !  La maille de nom M5 n'est pas de type surfacique (triangles ou quadrangles). !
   !  Elle ne sera pas affectée par SOURCE .                                       !
   !                                                                               !
   !                                                                               !
   ! This is a warning. If you do not understand the meaning of this               !
   !  warning, you can obtain unexpected results!                                  !
   !-------------------------------------------------------------------------------!
   
   
   !-------------------------------------------------------------------------------------!
   ! <A> <CATAMESS_41>                                                                   !
   !                                                                                     !
   ! The warning message  CHARGES2_87 was emitted 5 time, it will not be displayed more. !
   !                                                                                     !
   !                                                                                     !
   ! This is a warning. If you do not understand the meaning of this                     !
   !  warning, you can obtain unexpected results!                                        !
   !-------------------------------------------------------------------------------------!
   
   
   !-------------------------------------------------------------------------------!
   ! <A> <CALCULEL_40>                                                             !
   !                                                                               !
   !  Erreur possible d'utilisation:                                               !
   !    Vous avez affecté des données sur certaines mailles mais ces données       !
   !    n'ont pas de signification pour les éléments finis portés par ces mailles. !
   !    Il s'agit peut-être d'une erreur d'affectation.                            !
   !                                                                               !
   !  Champ : '.9000110.CHTH.SOURE'                                                !
   !  Commentaire sur ce champ : Chargement provenant du mot cle SOURCE            !
   !  Grandeur : SOUR_R   Composante non reconnue : SOUR                           !
   !                                                                               !
   !  Ce problème concerne 383 mailles                                             !
   !  Les premières mailles concernées sont imprimées ci-dessous.                  !
   !  Type de l'élément affecté sur la première maille imprimée : THPLSE2          !
   !                                                                               !
   !                                                                               !
   ! This is a warning. If you do not understand the meaning of this               !
   !  warning, you can obtain unexpected results!                                  !
   !-------------------------------------------------------------------------------!
   
   
   !-------------------------------------------------------------------------------!
   ! <A> <CHARGES2_87>                                                             !
   !                                                                               !
   !  La maille de nom M1 n'est pas de type surfacique (triangles ou quadrangles). !
   !  Elle ne sera pas affectée par SOURCE .                                       !
   !                                                                               !
   !                                                                               !
   ! This is a warning. If you do not understand the meaning of this               !
   !  warning, you can obtain unexpected results!                                  !
   !-------------------------------------------------------------------------------!
   
   
   !-------------------------------------------------------------------------------!
   ! <A> <CHARGES2_87>                                                             !
   !                                                                               !
   !  La maille de nom M2 n'est pas de type surfacique (triangles ou quadrangles). !
   !  Elle ne sera pas affectée par SOURCE .                                       !
   !                                                                               !
   !                                                                               !
   ! This is a warning. If you do not understand the meaning of this               !
   !  warning, you can obtain unexpected results!                                  !
   !-------------------------------------------------------------------------------!
   
   
   !-------------------------------------------------------------------------------!
   ! <A> <CHARGES2_87>                                                             !
   !                                                                               !
   !  La maille de nom M3 n'est pas de type surfacique (triangles ou quadrangles). !
   !  Elle ne sera pas affectée par SOURCE .                                       !
   !                                                                               !
   !                                                                               !
   ! This is a warning. If you do not understand the meaning of this               !
   !  warning, you can obtain unexpected results!                                  !
   !-------------------------------------------------------------------------------!
   
   
   !-------------------------------------------------------------------------------!
   ! <A> <CHARGES2_87>                                                             !
   !                                                                               !
   !  La maille de nom M4 n'est pas de type surfacique (triangles ou quadrangles). !
   !  Elle ne sera pas affectée par SOURCE .                                       !
   !                                                                               !
   !                                                                               !
   ! This is a warning. If you do not understand the meaning of this               !
   !  warning, you can obtain unexpected results!                                  !
   !-------------------------------------------------------------------------------!
   
   
   !-------------------------------------------------------------------------------!
   ! <A> <CHARGES2_87>                                                             !
   !                                                                               !
   !  La maille de nom M5 n'est pas de type surfacique (triangles ou quadrangles). !
   !  Elle ne sera pas affectée par SOURCE .                                       !
   !                                                                               !
   !                                                                               !
   ! This is a warning. If you do not understand the meaning of this               !
   !  warning, you can obtain unexpected results!                                  !
   !-------------------------------------------------------------------------------!
   
   
   !-------------------------------------------------------------------------------------!
   ! <A> <CATAMESS_41>                                                                   !
   !                                                                                     !
   ! The warning message  CHARGES2_87 was emitted 5 time, it will not be displayed more. !
   !                                                                                     !
   !                                                                                     !
   ! This is a warning. If you do not understand the meaning of this                     !
   !  warning, you can obtain unexpected results!                                        !
   !-------------------------------------------------------------------------------------!
   
   
   !-------------------------------------------------------------------------------!
   ! <A> <CALCULEL_40>                                                             !
   !                                                                               !
   !  Erreur possible d'utilisation:                                               !
   !    Vous avez affecté des données sur certaines mailles mais ces données       !
   !    n'ont pas de signification pour les éléments finis portés par ces mailles. !
   !    Il s'agit peut-être d'une erreur d'affectation.                            !
   !                                                                               !
   !  Champ : '.9000114.CHTH.SOURE'                                                !
   !  Commentaire sur ce champ : Chargement provenant du mot cle SOURCE            !
   !  Grandeur : SOUR_F   Composante non reconnue : SOUR                           !
   !                                                                               !
   !  Ce problème concerne 383 mailles                                             !
   !  Les premières mailles concernées sont imprimées ci-dessous.                  !
   !  Type de l'élément affecté sur la première maille imprimée : THPLSE2          !
   !                                                                               !
   !                                                                               !
   ! This is a warning. If you do not understand the meaning of this               !
   !  warning, you can obtain unexpected results!                                  !
   !-------------------------------------------------------------------------------!
   
   
   !-------------------------------------------------------------------------------!
   ! <A> <CHARGES2_87>                                                             !
   !                                                                               !
   !  La maille de nom M1 n'est pas de type surfacique (triangles ou quadrangles). !
   !  Elle ne sera pas affectée par SOURCE .                                       !
   !                                                                               !
   !                                                                               !
   ! This is a warning. If you do not understand the meaning of this               !
   !  warning, you can obtain unexpected results!                                  !
   !-------------------------------------------------------------------------------!
   
   
   !-------------------------------------------------------------------------------!
   ! <A> <CHARGES2_87>                                                             !
   !                                                                               !
   !  La maille de nom M2 n'est pas de type surfacique (triangles ou quadrangles). !
   !  Elle ne sera pas affectée par SOURCE .                                       !
   !                                                                               !
   !                                                                               !
   ! This is a warning. If you do not understand the meaning of this               !
   !  warning, you can obtain unexpected results!                                  !
   !-------------------------------------------------------------------------------!
   
   
   !-------------------------------------------------------------------------------!
   ! <A> <CHARGES2_87>                                                             !
   !                                                                               !
   !  La maille de nom M3 n'est pas de type surfacique (triangles ou quadrangles). !
   !  Elle ne sera pas affectée par SOURCE .                                       !
   !                                                                               !
   !                                                                               !
   ! This is a warning. If you do not understand the meaning of this               !
   !  warning, you can obtain unexpected results!                                  !
   !-------------------------------------------------------------------------------!
   
   
   !-------------------------------------------------------------------------------!
   ! <A> <CHARGES2_87>                                                             !
   !                                                                               !
   !  La maille de nom M4 n'est pas de type surfacique (triangles ou quadrangles). !
   !  Elle ne sera pas affectée par SOURCE .                                       !
   !                                                                               !
   !                                                                               !
   ! This is a warning. If you do not understand the meaning of this               !
   !  warning, you can obtain unexpected results!                                  !
   !-------------------------------------------------------------------------------!
   
   
   !-------------------------------------------------------------------------------!
   ! <A> <CHARGES2_87>                                                             !
   !                                                                               !
   !  La maille de nom M5 n'est pas de type surfacique (triangles ou quadrangles). !
   !  Elle ne sera pas affectée par SOURCE .                                       !
   !                                                                               !
   !                                                                               !
   ! This is a warning. If you do not understand the meaning of this               !
   !  warning, you can obtain unexpected results!                                  !
   !-------------------------------------------------------------------------------!
[...]
   !                                                                 !
   !  Shell element QUAD4 defined on the mesh:  M2318                !
   !  is not plane and can lead has false results                    !
   !                                                                 !
   !  Distance to the plane:  0.002665                               !
   !                                                                 !
   !                                                                 !
   ! This is a warning. If you do not understand the meaning of this !
   !  warning, you can obtain unexpected results!                    !
   !-----------------------------------------------------------------!
   
   
   !-----------------------------------------------------------------!
   ! <A> <ELEMENTS4_80>                                              !
   !                                                                 !
   !  Shell element QUAD4 defined on the mesh:  M2319                !
   !  is not plane and can lead has false results                    !
   !                                                                 !
   !  Distance to the plane:  0.003128                               !
   !                                                                 !
   !                                                                 !
   ! This is a warning. If you do not understand the meaning of this !
   !  warning, you can obtain unexpected results!                    !
   !-----------------------------------------------------------------!
   
   
   !-----------------------------------------------------------------!
   ! <A> <ELEMENTS4_80>                                              !
   !                                                                 !
   !  Shell element QUAD4 defined on the mesh:  M2320                !
   !  is not plane and can lead has false results                    !
   !                                                                 !
   !  Distance to the plane:  0.003184                               !
   !                                                                 !
   !                                                                 !
   ! This is a warning. If you do not understand the meaning of this !
   !  warning, you can obtain unexpected results!                    !
   !-----------------------------------------------------------------!
   
   
   !-----------------------------------------------------------------!
   ! <A> <ELEMENTS4_80>                                              !
   !                                                                 !
   !  Shell element QUAD4 defined on the mesh:  M2321                !
   !  is not plane and can lead has false results                    !
   !                                                                 !
   !  Distance to the plane:  0.002712                               !
   !                                                                 !
   !                                                                 !
   ! This is a warning. If you do not understand the meaning of this !
   !  warning, you can obtain unexpected results!                    !
   !-----------------------------------------------------------------!
   
   
   !--------------------------------------------------------------------------------------!
   ! <A> <CATAMESS_41>                                                                    !
   !                                                                                      !
   ! The warning message  ELEMENTS4_80 was emitted 5 time, it will not be displayed more. !
   !                                                                                      !
   !                                                                                      !
   ! This is a warning. If you do not understand the meaning of this                      !
   !  warning, you can obtain unexpected results!                                         !
   !--------------------------------------------------------------------------------------!
   
   
   !-----------------------------------------------------------------!
   ! <A> <ELEMENTS4_80>                                              !
   !                                                                 !
   !  Shell element QUAD4 defined on the mesh:  M2314                !
   !  is not plane and can lead has false results                    !
   !                                                                 !
   !  Distance to the plane:  0.005361                               !
   !                                                                 !
   !                                                                 !
   ! This is a warning. If you do not understand the meaning of this !
   !  warning, you can obtain unexpected results!                    !
   !-----------------------------------------------------------------!
   
   
   !-----------------------------------------------------------------!
   ! <A> <ELEMENTS4_80>                                              !
   !                                                                 !
   !  Shell element QUAD4 defined on the mesh:  M2314                !
   !  is not plane and can lead has false results                    !
   !                                                                 !
   !  Distance to the plane:  0.005361                               !
   !                                                                 !
   !                                                                 !
   ! This is a warning. If you do not understand the meaning of this !
   !  warning, you can obtain unexpected results!                    !
   !-----------------------------------------------------------------!
   
   
   !-----------------------------------------------------------------!
   ! <A> <ELEMENTS4_80>                                              !
   !                                                                 !
   !  Shell element QUAD4 defined on the mesh:  M2318                !
   !  is not plane and can lead has false results                    !
   !                                                                 !
   !  Distance to the plane:  0.002665                               !
   !                                                                 !
   !                                                                 !
   ! This is a warning. If you do not understand the meaning of this !
   !  warning, you can obtain unexpected results!                    !
   !-----------------------------------------------------------------!
   
   
   !-----------------------------------------------------------------!
   ! <A> <ELEMENTS4_80>                                              !
   !                                                                 !
   !  Shell element QUAD4 defined on the mesh:  M2318                !
   !  is not plane and can lead has false results                    !
   !                                                                 !
   !  Distance to the plane:  0.002665                               !
   !                                                                 !
   !                                                                 !
   ! This is a warning. If you do not understand the meaning of this !
   !  warning, you can obtain unexpected results!                    !
   !-----------------------------------------------------------------!
   
   
   !-----------------------------------------------------------------!
   ! <A> <ELEMENTS4_80>                                              !
   !                                                                 !
   !  Shell element QUAD4 defined on the mesh:  M2319                !
   !  is not plane and can lead has false results                    !
   !                                                                 !
   !  Distance to the plane:  0.003128                               !
   !                                                                 !
   !                                                                 !
   ! This is a warning. If you do not understand the meaning of this !
   !  warning, you can obtain unexpected results!                    !
   !-----------------------------------------------------------------!
   
   
   !--------------------------------------------------------------------------------------!
   ! <A> <CATAMESS_41>                                                                    !
   !                                                                                      !
   ! The warning message  ELEMENTS4_80 was emitted 5 time, it will not be displayed more. !
   !                                                                                      !
   !                                                                                      !
   ! This is a warning. If you do not understand the meaning of this                      !
   !  warning, you can obtain unexpected results!                                         !
   !--------------------------------------------------------------------------------------!
   
   
   !-----------------------------------------------------------------!
   ! <A> <ELEMENTS4_80>                                              !
   !                                                                 !
   !  Shell element QUAD4 defined on the mesh:  M6160                !
   !  is not plane and can lead has false results                    !
   !                                                                 !
   !                                                                 !
   ! This is a warning. If you do not understand the meaning of this !
   !  warning, you can obtain unexpected results!                    !
   !-----------------------------------------------------------------!
   
   
   !-----------------------------------------------------------------!
   ! <A> <ELEMENTS4_80>                                              !
   !                                                                 !
   !  Shell element QUAD4 defined on the mesh:  M6380                !
   !  is not plane and can lead has false results                    !
   !                                                                 !
   !                                                                 !
   ! This is a warning. If you do not understand the meaning of this !
   !  warning, you can obtain unexpected results!                    !
   !-----------------------------------------------------------------!
   
   
   !-----------------------------------------------------------------!
   ! <A> <ELEMENTS4_80>                                              !
   !                                                                 !
   !  Shell element QUAD4 defined on the mesh:  M6841                !
   !  is not plane and can lead has false results                    !
   !                                                                 !
   !                                                                 !
   ! This is a warning. If you do not understand the meaning of this !
   !  warning, you can obtain unexpected results!                    !
   !-----------------------------------------------------------------!
   
   
   !-----------------------------------------------------------------!
   ! <A> <ELEMENTS4_80>                                              !
   !                                                                 !
   !  Shell element QUAD4 defined on the mesh:  M6341                !
   !  is not plane and can lead has false results                    !
   !                                                                 !
   !                                                                 !
   ! This is a warning. If you do not understand the meaning of this !
   !  warning, you can obtain unexpected results!                    !
   !-----------------------------------------------------------------!
   
   
   !-----------------------------------------------------------------!
   ! <A> <ELEMENTS4_80>                                              !
   !                                                                 !
   !  Shell element QUAD4 defined on the mesh:  M6601                !
   !  is not plane and can lead has false results                    !
   !                                                                 !
   !                                                                 !
   ! This is a warning. If you do not understand the meaning of this !
   !  warning, you can obtain unexpected results!                    !
   !-----------------------------------------------------------------!
   
   
   !--------------------------------------------------------------------------------------!
   ! <A> <CATAMESS_41>                                                                    !
   !                                                                                      !
   ! The warning message  ELEMENTS4_80 was emitted 5 time, it will not be displayed more. !
   !                                                                                      !
   !                                                                                      !
   ! This is a warning. If you do not understand the meaning of this                      !
   !  warning, you can obtain unexpected results!                                         !
   !--------------------------------------------------------------------------------------!
   
   
   !-------------------------------------------------------------------------------------------!
   ! <A> <UTILITAI_4>                                                                          !
   !                                                                                           !
   !  You requested the computation of a field from the nodes on structural elements           !
   ! . But the local coordinate systems of certain meshes surrounding                          !
   !  of the nodes on which you asked for computation are not                                  !
   !  compatible (To the maximum, there are 3.14159 degrees of difference between the nautical !
   !  angles defining these references).                                                       !
   !                                                                                           !
   !  Risk & Conseil:                                                                          !
   !  It may be that you obtained incoherent results.                                          !
   !  It is thus recommended to pass in total reference the fields                             !
   !  useful for the computation of the field to the nodes.                                    !
   !                                                                                           !
   !                                                                                           !
   ! This is a warning. If you do not understand the meaning of this                           !
   !  warning, you can obtain unexpected results!                                              !
   !-------------------------------------------------------------------------------------------!
   
   
   !----------------------------------------------------------------------------------!
   ! <EXCEPTION> <CALCULEL2_88>                                                       !
   !                                                                                  !
   !  The option INIT_MAIL_VOIS is not available for any the elements of your model.  !
   !  The computation of indicator of error is thus impossible.                       !
   !----------------------------------------------------------------------------------!
   
 <I> <FIN> FERMETURE DE LA BASE "GLOBALE" EFFECTUEE.

 <FIN> Arrêt normal dans "FIN".
 <I> <FIN> ARRET NORMAL DANS "FIN" PAR APPEL A "JEFINI".
  
 <I> <FIN> MEMOIRE JEVEUX MINIMALE REQUISE POUR L'EXECUTION :                      51.47 Mo
 <I> <FIN> MEMOIRE JEVEUX OPTIMALE REQUISE POUR L'EXECUTION :                     182.20 Mo
 <I> <FIN> MAXIMUM DE MEMOIRE UTILISEE PAR LE PROCESSUS LORS DE L'EXECUTION :     504.81 Mo

 ********************************************************************************
 * COMMAND                  :       USER :     SYSTEM :   USER+SYS :    ELAPSED *
 ********************************************************************************
 * init (jdc)               :       0.24 :       0.03 :       0.27 :       0.41 *
 *  . compile               :       0.00 :       0.00 :       0.00 :       0.00 *
 *  . exec_compile          :       0.09 :       0.01 :       0.10 :       0.15 *
 *  . report                :       0.02 :       0.00 :       0.02 :       0.02 *
 *  . build                 :       0.00 :       0.00 :       0.00 :       0.00 *
 * DEBUT                    :       0.01 :       0.03 :       0.04 :       0.29 *
 * LIRE_MAILLAGE            :       0.00 :       0.00 :       0.00 :       0.08 *
 * MACR_CARA_POUTRE         :       1.08 :       0.02 :       1.10 :       1.27 *
 * IMPR_TABLE               :       0.01 :       0.00 :       0.01 :       0.00 *
 * LIRE_MAILLAGE            :       0.01 :       0.00 :       0.01 :       0.00 *
 * MACR_CARA_POUTRE         :       0.39 :       0.03 :       0.42 :       0.42 *
 * IMPR_TABLE               :       0.00 :       0.00 :       0.00 :       0.00 *
 * LIRE_MAILLAGE            :       0.00 :       0.00 :       0.00 :       0.00 *
 * MACR_CARA_POUTRE         :       0.87 :       0.00 :       0.87 :       0.84 *
 * IMPR_TABLE               :       0.00 :       0.00 :       0.00 :       0.01 *
 * LIRE_MAILLAGE            :       0.00 :       0.01 :       0.01 :       0.00 *
 * MACR_CARA_POUTRE         :       0.32 :       0.01 :       0.33 :       0.33 *
 * IMPR_TABLE               :       0.01 :       0.00 :       0.01 :       0.00 *
 * DEFI_MATERIAU            :       0.00 :       0.00 :       0.00 :       0.00 *
 * LIRE_MAILLAGE            :       0.12 :       0.01 :       0.13 :       0.13 *
 * MODI_MAILLAGE            :       0.01 :       0.01 :       0.02 :       0.01 *
 * MODI_MAILLAGE            :       0.01 :       0.00 :       0.01 :       0.01 *
 * CREA_MAILLAGE            :       0.04 :       0.00 :       0.04 :       0.04 *
 * AFFE_MODELE              :       0.01 :       0.00 :       0.01 :       0.01 *
 * AFFE_MATERIAU            :       0.01 :       0.00 :       0.01 :       0.00 *
 * AFFE_CARA_ELEM           :       0.19 :       0.00 :       0.19 :       0.20 *
 * AFFE_CHAR_MECA           :       0.00 :       0.00 :       0.00 :       0.01 *
 * AFFE_CHAR_MECA           :       0.01 :       0.01 :       0.02 :       0.04 *
 * MECA_STATIQUE            :       3.98 :       0.10 :       4.08 :       1.80 *
 * CALC_CHAMP               :       0.36 :       0.01 :       0.37 :       0.36 *
 * CALC_CHAMP               :       0.03 :       0.00 :       0.03 :       0.03 *
 * POST_CHAMP               :       0.02 :       0.00 :       0.02 :       0.02 *
 * CALC_CHAMP               :       0.73 :       0.00 :       0.73 :       0.73 *
 * CALC_ERREUR              :       0.02 :       0.04 :       0.06 :       0.08 *
 * FIN                      :       0.02 :       0.04 :       0.06 :       0.07 *
 *  . part Superviseur      :       0.59 :       0.06 :       0.65 :       1.40 *
 *  . part Fortran          :       7.90 :       0.25 :       8.15 :       6.14 *
 ********************************************************************************
 * TOTAL_JOB                :       8.50 :       0.31 :       8.81 :       7.54 *
 ********************************************************************************


 <I>_EXIT_CODE = 1